/*---------------------------------------------------------------------------*\
| =========                 |                                                 |
| \\      /  F ield         | OpenFOAM: The Open Source CFD Toolbox           |
|  \\    /   O peration     | Version:  2106                                  |
|   \\  /    A nd           | Website:  www.openfoam.com                      |
|    \\/     M anipulation  |                                                 |
\*---------------------------------------------------------------------------*/
Build  : _7b82832f-20210625 OPENFOAM=2106
Arch   : "LSB;label=32;scalar=64"
Exec   : surfaceFeatureExtract
Date   : Aug 23 2021
Time   : 20:27:13
Host   : MSI
PID    : 29680
I/O    : uncollated
Case   : /home/lonitch/fourFansInBox/mesh
nProcs : 1
trapFpe: Floating point exception trapping enabled (FOAM_SIGFPE).
fileModificationChecking : Monitoring run-time modified files using timeStampMaster (fileModificationSkew 5, maxFileModificationPolls 20)
allowSystemOperations : Allowing user-supplied system call operations

// * * * * * * * * * * * * * * * * * * * * * * * * * * * * * * * * * * * * * //
Create time


Note: Feature line extraction only valid on closed manifold surfaces

Reading surfaceFeatureExtractDict

Surfaces     : cylinder1S.stl
Output       : cylinder1S
Load options : offset
Write options: writeObj=off writeVTK=off

Statistics:
Triangles    : 124 in 1 region(s)
Vertices     : 64
Bounding Box : (-0.2 -1.1 0.6) (0.2 -0.7 1)

Constructing feature set from included angle 150
Selecting edges based purely on geometric tests: no

Initial Feature set:
    points : 0
    edges  : 64
    of which
        region edges   : 0
        external edges : 64
        internal edges : 0

Final Feature set:
    points : 64
    of which
        convex             : 0
        concave            : 0
        mixed              : 0
        non-feature        : 64
    edges  : 64
    of which
        external edges     : 64
        internal edges     : 0
        flat edges         : 0
        open edges         : 0
        multiply connected : 0

Writing extendedFeatureEdgeMesh to "/home/lonitch/fourFansInBox/mesh/constant/extendedFeatureEdgeMesh/cylinder1S.extendedFeatureEdgeMesh"

Writing featureEdgeMesh to "/home/lonitch/fourFansInBox/mesh/constant/triSurface/cylinder1S.eMesh"
Surfaces     : cylinder2S.stl
Output       : cylinder2S
Load options : offset
Write options: writeObj=off writeVTK=off

Statistics:
Triangles    : 124 in 1 region(s)
Vertices     : 64
Bounding Box : (-0.2 0.7 0.6) (0.2 1.1 1)

Constructing feature set from included angle 150
Selecting edges based purely on geometric tests: no

Initial Feature set:
    points : 0
    edges  : 64
    of which
        region edges   : 0
        external edges : 64
        internal edges : 0

Final Feature set:
    points : 64
    of which
        convex             : 0
        concave            : 0
        mixed              : 0
        non-feature        : 64
    edges  : 64
    of which
        external edges     : 64
        internal edges     : 0
        flat edges         : 0
        open edges         : 0
        multiply connected : 0

Writing extendedFeatureEdgeMesh to "/home/lonitch/fourFansInBox/mesh/constant/extendedFeatureEdgeMesh/cylinder2S.extendedFeatureEdgeMesh"

Writing featureEdgeMesh to "/home/lonitch/fourFansInBox/mesh/constant/triSurface/cylinder2S.eMesh"
Surfaces     : twoFansY12.stl
Output       : twoFansY12
Load options : offset
Write options: writeObj=off writeVTK=off

Statistics:
Triangles    : 408 in 1 region(s)
Vertices     : 168
Bounding Box : (-0.1065059 -1.023052 0.775) (0.1275528 1.023052 0.825)

Constructing feature set from included angle 150
Selecting edges based purely on geometric tests: no

Initial Feature set:
    points : 164
    edges  : 310
    of which
        region edges   : 138
        external edges : 106
        internal edges : 66

Final Feature set:
    points : 168
    of which
        convex             : 40
        concave            : 0
        mixed              : 124
        non-feature        : 4
    edges  : 310
    of which
        external edges     : 106
        internal edges     : 66
        flat edges         : 0
        open edges         : 20
        multiply connected : 118

Writing extendedFeatureEdgeMesh to "/home/lonitch/fourFansInBox/mesh/constant/extendedFeatureEdgeMesh/twoFansY12.extendedFeatureEdgeMesh"

Writing featureEdgeMesh to "/home/lonitch/fourFansInBox/mesh/constant/triSurface/twoFansY12.eMesh"
Surfaces     : inletS.stl
Output       : inletS
Load options : offset
Write options: writeObj=off writeVTK=off

Statistics:
Triangles    : 12 in 1 region(s)
Vertices     : 12
Bounding Box : (1.5 -0.2142857 0.28) (1.5 0.2142857 0.3733333)

Constructing feature set from included angle 150
Selecting edges based purely on geometric tests: no

Initial Feature set:
    points : 4
    edges  : 10
    of which
        region edges   : 10
        external edges : 0
        internal edges : 0

Final Feature set:
    points : 10
    of which
        convex             : 0
        concave            : 0
        mixed              : 4
        non-feature        : 6
    edges  : 10
    of which
        external edges     : 0
        internal edges     : 0
        flat edges         : 0
        open edges         : 10
        multiply connected : 0

Writing extendedFeatureEdgeMesh to "/home/lonitch/fourFansInBox/mesh/constant/extendedFeatureEdgeMesh/inletS.extendedFeatureEdgeMesh"

Writing featureEdgeMesh to "/home/lonitch/fourFansInBox/mesh/constant/triSurface/inletS.eMesh"
Surfaces     : outletS.stl
Output       : outletS
Load options : offset
Write options: writeObj=off writeVTK=off

Statistics:
Triangles    : 12 in 1 region(s)
Vertices     : 12
Bounding Box : (-1.5 -0.2142857 0.28) (-1.5 0.2142857 0.3733333)

Constructing feature set from included angle 150
Selecting edges based purely on geometric tests: no

Initial Feature set:
    points : 4
    edges  : 10
    of which
        region edges   : 10
        external edges : 0
        internal edges : 0

Final Feature set:
    points : 10
    of which
        convex             : 0
        concave            : 0
        mixed              : 4
        non-feature        : 6
    edges  : 10
    of which
        external edges     : 0
        internal edges     : 0
        flat edges         : 0
        open edges         : 10
        multiply connected : 0

Writing extendedFeatureEdgeMesh to "/home/lonitch/fourFansInBox/mesh/constant/extendedFeatureEdgeMesh/outletS.extendedFeatureEdgeMesh"

Writing featureEdgeMesh to "/home/lonitch/fourFansInBox/mesh/constant/triSurface/outletS.eMesh"
Surfaces     : wallsS.stl
Output       : wallsS
Load options : offset
Write options: writeObj=off writeVTK=off

Statistics:
Triangles    : 1908 in 1 region(s)
Vertices     : 964
Bounding Box : (-1.5 -1.5 0) (1.5 1.5 0.98)

Constructing feature set from included angle 150
Selecting edges based purely on geometric tests: no

Initial Feature set:
    points : 96
    edges  : 268
    of which
        region edges   : 20
        external edges : 20
        internal edges : 228

Final Feature set:
    points : 188
    of which
        convex             : 88
        concave            : 0
        mixed              : 8
        non-feature        : 92
    edges  : 268
    of which
        external edges     : 248
        internal edges     : 0
        flat edges         : 0
        open edges         : 20
        multiply connected : 0

Writing extendedFeatureEdgeMesh to "/home/lonitch/fourFansInBox/mesh/constant/extendedFeatureEdgeMesh/wallsS.extendedFeatureEdgeMesh"

Writing featureEdgeMesh to "/home/lonitch/fourFansInBox/mesh/constant/triSurface/wallsS.eMesh"
ExecutionTime = 0.11 s  ClockTime = 0 s

End

